Version 4
SHEET 1 880 928
WIRE 640 -368 480 -368
WIRE 640 -336 640 -368
WIRE 480 -320 480 -368
WIRE 480 -320 384 -320
WIRE 480 -256 480 -320
WIRE 640 -240 640 -256
WIRE 640 -240 528 -240
WIRE 640 -192 640 -240
WIRE 688 -192 640 -192
WIRE 688 -128 688 -192
WIRE 688 -128 640 -128
WIRE 64 -112 -112 -112
WIRE 272 -112 64 -112
WIRE 384 -112 384 -320
WIRE 384 -112 272 -112
WIRE 272 -80 272 -112
WIRE 64 -64 64 -112
WIRE 384 -48 384 -112
WIRE 480 -48 480 -160
WIRE -112 -16 -112 -112
WIRE 176 16 64 16
WIRE 64 64 64 16
WIRE 272 64 272 -16
WIRE 384 96 384 16
WIRE 480 96 480 16
WIRE 176 112 176 16
WIRE 176 112 128 112
WIRE 208 112 176 112
WIRE -112 192 -112 64
WIRE 64 208 64 160
WIRE 272 208 272 160
WIRE 288 208 272 208
WIRE 384 272 384 160
WIRE 480 304 480 160
WIRE 176 320 176 112
WIRE 320 320 176 320
WIRE 384 416 384 368
WIRE 400 416 384 416
WIRE 480 528 480 368
WIRE 176 576 176 320
WIRE 416 576 176 576
WIRE 480 640 480 624
WIRE 480 736 480 640
WIRE 640 768 640 -128
WIRE 640 864 640 848
FLAG 64 208 0
FLAG 272 208 0
FLAG 64 -112 VCC
FLAG -112 192 0
FLAG 384 416 0
FLAG 480 736 0
FLAG 640 864 0
FLAG 480 640 Q4_E
SYMBOL npn 208 64 R0
SYMATTR InstName Q1
SYMATTR Value BC847C
SYMBOL npn 128 64 M0
SYMATTR InstName Q2
SYMATTR Value BC847C
SYMBOL res 48 -80 R0
SYMATTR InstName R1
SYMATTR Value 700
SYMBOL voltage -112 -32 R0
WINDOW 123 0 0 Left 2
WINDOW 39 0 0 Left 2
SYMATTR InstName V1
SYMATTR Value 12
SYMBOL npn 320 272 R0
SYMATTR InstName Q3
SYMATTR Value BC847C
SYMBOL npn 416 528 R0
SYMATTR InstName Q4
SYMATTR Value BC847C
SYMBOL LED 256 -80 R0
SYMATTR InstName D1
SYMATTR Value AOT-2015
SYMATTR Description Diode
SYMATTR Type diode
SYMBOL LED 368 96 R0
SYMATTR InstName D2
SYMATTR Value AOT-2015
SYMATTR Description Diode
SYMATTR Type diode
SYMBOL LED 368 -48 R0
SYMATTR InstName D3
SYMATTR Value AOT-2015
SYMATTR Description Diode
SYMATTR Type diode
SYMBOL LED 464 304 R0
SYMATTR InstName D4
SYMATTR Value AOT-2015
SYMATTR Description Diode
SYMATTR Type diode
SYMBOL LED 464 96 R0
SYMATTR InstName D5
SYMATTR Value AOT-2015
SYMATTR Description Diode
SYMATTR Type diode
SYMBOL LED 464 -48 R0
SYMATTR InstName D6
SYMATTR Value AOT-2015
SYMATTR Description Diode
SYMATTR Type diode
SYMBOL pmos 528 -160 R180
SYMATTR InstName M1
SYMATTR Value BSS84
SYMBOL voltage 640 752 R0
WINDOW 123 0 0 Left 2
WINDOW 39 0 0 Left 2
SYMATTR InstName V2
SYMATTR Value 0
SYMBOL res 624 -352 R0
SYMATTR InstName R2
SYMATTR Value 100
TEXT -168 624 Left 2 !.op
