Version 4
SHEET 1 880 884
WIRE -144 -144 -352 -144
WIRE 32 -144 -144 -144
WIRE 224 -144 32 -144
WIRE 416 -144 224 -144
WIRE 432 -144 416 -144
WIRE -144 -112 -144 -144
WIRE 32 -112 32 -144
WIRE 224 -112 224 -144
WIRE 416 -112 416 -144
WIRE -48 -96 -96 -96
WIRE -16 -96 -48 -96
WIRE 176 -96 144 -96
WIRE 368 -96 336 -96
WIRE -144 16 -144 -16
WIRE -48 16 -48 -96
WIRE -48 16 -144 16
WIRE 144 16 144 -96
WIRE 144 16 -48 16
WIRE 336 16 336 -96
WIRE 336 16 144 16
WIRE -144 32 -144 16
WIRE 32 64 32 -16
WIRE 224 64 224 -16
WIRE 416 64 416 -16
WIRE 32 160 32 128
WIRE 224 160 224 128
WIRE -352 256 -352 -144
WIRE 32 256 32 224
WIRE 32 368 32 320
WIRE 32 496 32 432
WIRE 32 528 32 496
WIRE -128 576 -256 576
WIRE -32 576 -48 576
WIRE -256 592 -256 576
WIRE -352 704 -352 336
WIRE -256 704 -256 672
WIRE -256 704 -352 704
WIRE -144 704 -144 112
WIRE -144 704 -256 704
WIRE -128 704 -144 704
WIRE 32 704 32 624
WIRE 32 704 -128 704
WIRE 224 704 224 224
WIRE 224 704 32 704
WIRE 416 704 416 128
WIRE 416 704 224 704
WIRE -128 736 -128 704
FLAG -128 736 0
FLAG 224 160 D1_A
FLAG 32 496 Q1_C
SYMBOL pmos -96 -16 R180
SYMATTR InstName M1
SYMATTR Value BSS84
SYMBOL pmos -16 -16 M180
SYMATTR InstName M2
SYMATTR Value BSS84
SYMBOL res -160 16 R0
SYMATTR InstName R1
SYMATTR Value 430
SYMBOL voltage -352 240 R0
WINDOW 123 0 0 Left 2
WINDOW 39 0 0 Left 2
SYMATTR InstName V1
SYMATTR Value 12
SYMBOL pmos 176 -16 M180
SYMATTR InstName M3
SYMATTR Value BSS84
SYMBOL LED 208 160 R0
SYMATTR InstName D1
SYMATTR Value AOT-2015
SYMATTR Description Diode
SYMATTR Type diode
SYMBOL pmos 368 -16 M180
SYMATTR InstName M4
SYMATTR Value BSS84
SYMBOL LED 16 64 R0
SYMATTR InstName D2
SYMATTR Value AOT-2015
SYMBOL LED 16 160 R0
SYMATTR InstName D3
SYMATTR Value AOT-2015
SYMBOL LED 16 256 R0
SYMATTR InstName D4
SYMATTR Value AOT-2015
SYMBOL LED 208 64 R0
SYMATTR InstName D5
SYMATTR Value AOT-2015
SYMBOL LED 400 64 R0
SYMATTR InstName D6
SYMATTR Value AOT-2015
SYMBOL npn -32 528 R0
SYMATTR InstName Q1
SYMBOL voltage -256 576 R0
WINDOW 123 0 0 Left 2
WINDOW 39 0 0 Left 2
SYMATTR InstName V2
SYMATTR Value 5
SYMBOL res -32 560 R90
WINDOW 0 0 56 VBottom 2
WINDOW 3 28 56 VBottom 2
SYMATTR InstName R2
SYMATTR Value 10000
SYMBOL LED 16 368 R0
SYMATTR InstName D7
SYMATTR Value AOT-2015
TEXT -384 712 Left 2 !.op
